Test_Network/condensed/network_18/Feeder_3/LinesUnq_pruned.txt
New Line.LINE183_122 Bus1=183_120 Bus2=183_123 phases=3 Linecode=4c_.1 Length=0.24947 Units=m
New Line.LINE183_127 Bus1=183_123 Bus2=183_128 phases=3 Linecode=2c_.0225 Length=1.7957 Units=m
New Line.LINE183_132 Bus1=183_128 Bus2=183_133 phases=3 Linecode=2c_.0225 Length=0.88631 Units=m
New Line.LINE183_136 Bus1=183_133 Bus2=183_137 phases=3 Linecode=2c_.0225 Length=1.5824 Units=m
New Line.LINE183_140 Bus1=183_137 Bus2=183_141 phases=3 Linecode=2c_.0225 Length=1.4226 Units=m
New Line.LINE183_144 Bus1=183_141 Bus2=183_145 phases=3 Linecode=2c_.0225 Length=1.1352 Units=m
New Line.LINE183_148 Bus1=183_145 Bus2=183_149 phases=3 Linecode=2c_.0225 Length=0.73574 Units=m
New Line.LINE183_152 Bus1=183_149 Bus2=183_153 phases=3 Linecode=2c_.0225 Length=0.31608 Units=m
New Line.LINE183_156 Bus1=183_153 Bus2=183_157 phases=3 Linecode=2c_.0225 Length=0.51335 Units=m
New Line.LINE183_160 Bus1=183_157 Bus2=183_161 phases=3 Linecode=2c_.0225 Length=6.5139 Units=m
New Line.LINE183_164 Bus1=183_161 Bus2=183_165 phases=3 Linecode=2c_.0225 Length=0.21495 Units=m
New Line.LINE183_168 Bus1=183_165 Bus2=183_169 phases=3 Linecode=2c_.0225 Length=0.18879 Units=m
New Line.LINE183_172 Bus1=183_169 Bus2=183_173 phases=3 Linecode=2c_.0225 Length=0.21114 Units=m
New Line.LINE183_176 Bus1=183_173 Bus2=183_177 phases=3 Linecode=2c_.0225 Length=0.239 Units=m
New Line.LINE183_180 Bus1=183_177 Bus2=183_181 phases=3 Linecode=2c_.0225 Length=0.098731 Units=m
New Line.LINE183_184 Bus1=183_181 Bus2=183_185 phases=3 Linecode=2c_.0225 Length=0.068732 Units=m
New Line.LINE183_188 Bus1=183_185 Bus2=183_189 phases=3 Linecode=2c_.0225 Length=0.05608 Units=m
New Line.LINE183_192 Bus1=183_189 Bus2=183_193 phases=3 Linecode=2c_.0225 Length=0.041232 Units=m
New Line.LINE183_196 Bus1=183_193 Bus2=183_197 phases=3 Linecode=2c_.0225 Length=0.074249 Units=m
New Line.LINE183_200 Bus1=183_197 Bus2=183_201 phases=3 Linecode=2c_.0225 Length=1.6187 Units=m
New Line.LINE183_204 Bus1=183_201 Bus2=183_205 phases=3 Linecode=2c_.0225 Length=1.854 Units=m
New Line.LINE183_208 Bus1=183_205 Bus2=183_209 phases=3 Linecode=2c_.0225 Length=1.4559 Units=m
New Line.LINE183_212 Bus1=183_209 Bus2=183_213 phases=3 Linecode=2c_.0225 Length=1.4608 Units=m
New Line.LINE183_216 Bus1=183_213 Bus2=183_217 phases=3 Linecode=2c_.0225 Length=0.18752 Units=m
New Line.LINE183_220 Bus1=183_217 Bus2=183_221 phases=3 Linecode=2c_.0225 Length=0.12889 Units=m
New Line.LINE183_223 Bus1=183_219 Bus2=183_224 phases=3 Linecode=4c_.1 Length=3.2086 Units=m
New Line.LINE183_225 Bus1=183_221 Bus2=183_226 phases=3 Linecode=2c_.0225 Length=0.09265 Units=m
New Line.LINE183_228 Bus1=183_224 Bus2=183_229 phases=3 Linecode=4c_.1 Length=2.9914 Units=m
New Line.LINE183_229 Bus1=183_226 Bus2=183_230 phases=3 Linecode=2c_.0225 Length=0.118 Units=m
New Line.LINE183_232 Bus1=183_229 Bus2=183_233 phases=3 Linecode=4c_.1 Length=1.7873 Units=m
New Line.LINE183_233 Bus1=183_230 Bus2=183_234 phases=3 Linecode=2c_.0225 Length=0.084001 Units=m
New Line.LINE183_236 Bus1=183_233 Bus2=183_237 phases=3 Linecode=4c_.1 Length=2.0229 Units=m
New Line.LINE183_237 Bus1=183_234 Bus2=183_238 phases=3 Linecode=2c_.0225 Length=0.085614 Units=m
New Line.LINE183_240 Bus1=183_237 Bus2=183_241 phases=3 Linecode=4c_.1 Length=1.2179 Units=m
New Line.LINE183_241 Bus1=183_238 Bus2=183_242 phases=3 Linecode=2c_.0225 Length=0.10062 Units=m
New Line.LINE183_244 Bus1=183_241 Bus2=183_245 phases=3 Linecode=4c_.1 Length=2.2916 Units=m
New Line.LINE183_245 Bus1=183_242 Bus2=183_246 phases=3 Linecode=2c_.0225 Length=0.39042 Units=m
New Line.LINE183_248 Bus1=183_245 Bus2=183_249 phases=3 Linecode=4c_.1 Length=2.386 Units=m
New Line.LINE183_249 Bus1=183_246 Bus2=183_250 phases=3 Linecode=2c_.0225 Length=0.75047 Units=m
New Line.LINE183_252 Bus1=183_249 Bus2=183_253 phases=3 Linecode=4c_.06_UA Length=0.59225 Units=m
New Line.LINE183_253 Bus1=183_250 Bus2=183_254 phases=3 Linecode=2c_.0225 Length=2.1065 Units=m
New Line.LINE183_256 Bus1=183_253 Bus2=183_257 phases=3 Linecode=4c_.06_UA Length=0.19383 Units=m
New Line.LINE183_259 Bus1=183_257 Bus2=183_260 phases=3 Linecode=4c_.06_UA Length=1.7396 Units=m
New Line.LINE183_263 Bus1=183_260 Bus2=183_264 phases=3 Linecode=4c_.06_UA Length=0.33395 Units=m
New Line.LINE183_327 Bus1=183_317 Bus2=183_328 phases=3 Linecode=3c_.06_UA Length=2.0176 Units=m
New Line.LINE183_339 Bus1=183_329 Bus2=183_340 phases=3 Linecode=3c_.06_UA Length=2.1857 Units=m
New Line.LINE183_354 Bus1=183_344 Bus2=183_355 phases=3 Linecode=4c_.06_UA Length=7.1758 Units=m
New Line.LINE183_366 Bus1=183_355 Bus2=183_367 phases=3 Linecode=4c_.06_UA Length=5.5846 Units=m
New Line.LINE183_377 Bus1=183_367 Bus2=183_378 phases=3 Linecode=4c_.06_UA Length=5.5207 Units=m
New Line.LINE183_388 Bus1=183_378 Bus2=183_389 phases=3 Linecode=4c_.06_UA Length=2.9898 Units=m
New Line.LINE183_400 Bus1=183_389 Bus2=183_401 phases=3 Linecode=4c_.06_UA Length=0.31919 Units=m
New Line.LINE183_409 Bus1=183_398 Bus2=183_410 phases=3 Linecode=2c_.0225 Length=2.7156 Units=m
New Line.LINE183_410 Bus1=183_398 Bus2=183_411 phases=3 Linecode=2c_.0225 Length=2.6449 Units=m
New Line.LINE183_413 Bus1=183_401 Bus2=183_414 phases=3 Linecode=4c_.06_UA Length=0.19185 Units=m
New Line.LINE183_423 Bus1=183_410 Bus2=183_424 phases=3 Linecode=3c_.06_UA Length=1.1738 Units=m
New Line.LINE183_425 Bus1=183_411 Bus2=183_426 phases=3 Linecode=3c_.06_UA Length=4.102 Units=m
New Line.LINE183_428 Bus1=183_414 Bus2=183_429 phases=3 Linecode=4c_.06_UA Length=1.112 Units=m
New Line.LINE183_437 Bus1=183_422 Bus2=183_438 phases=3 Linecode=4c_.1 Length=0.76883 Units=m
New Line.LINE183_442 Bus1=183_429 Bus2=183_443 phases=3 Linecode=4c_.06_UA Length=0.21974 Units=m
New Line.LINE183_457 Bus1=183_443 Bus2=183_458 phases=3 Linecode=4c_.06_UA Length=0.21077 Units=m
New Line.LINE183_473 Bus1=183_458 Bus2=183_474 phases=3 Linecode=4c_.06_UA Length=0.20716 Units=m
New Line.LINE183_489 Bus1=183_474 Bus2=183_490 phases=3 Linecode=4c_.06_UA Length=0.18116 Units=m
New Line.LINE183_505 Bus1=183_490 Bus2=183_506 phases=3 Linecode=4c_.06_UA Length=2.6345 Units=m
New Line.LINE183_522 Bus1=183_506 Bus2=183_523 phases=3 Linecode=2c_.0225 Length=0.24725 Units=m
New Line.LINE183_540 Bus1=183_523 Bus2=183_541 phases=3 Linecode=2c_.0225 Length=0.123 Units=m
New Line.LINE183_557 Bus1=183_541 Bus2=183_558 phases=3 Linecode=2c_.0225 Length=0.07398 Units=m
New Line.LINE183_559 Bus1=183_543 Bus2=183_560 phases=3 Linecode=2c_.0225 Length=1.4188 Units=m
New Line.LINE183_575 Bus1=183_558 Bus2=183_576 phases=3 Linecode=2c_.0225 Length=0.11204 Units=m
New Line.LINE183_591 Bus1=183_576 Bus2=183_592 phases=3 Linecode=2c_.0225 Length=0.12162 Units=m
New Line.LINE183_607 Bus1=183_592 Bus2=183_608 phases=3 Linecode=2c_.0225 Length=0.15259 Units=m
New Line.LINE183_613 Bus1=183_598 Bus2=183_614 phases=3 Linecode=25_SAC_XC Length=3.6435 Units=m
New Line.LINE183_614 Bus1=183_599 Bus2=183_615 phases=3 Linecode=3c_.06_UA Length=2.031 Units=m
New Line.LINE183_623 Bus1=183_608 Bus2=183_624 phases=3 Linecode=2c_.0225 Length=0.12454 Units=m
New Line.LINE183_630 Bus1=183_615 Bus2=183_631 phases=3 Linecode=3c_.06_UA Length=4.3919 Units=m
New Line.LINE183_640 Bus1=183_624 Bus2=183_641 phases=3 Linecode=2c_.0225 Length=0.13563 Units=m
New Line.LINE183_656 Bus1=183_641 Bus2=183_657 phases=3 Linecode=2c_.0225 Length=0.12578 Units=m
New Line.LINE183_670 Bus1=183_657 Bus2=183_671 phases=3 Linecode=2c_.0225 Length=0.389 Units=m
New Line.LINE183_684 Bus1=183_671 Bus2=183_685 phases=3 Linecode=2c_.0225 Length=2.2745 Units=m
New Line.LINE183_698 Bus1=183_685 Bus2=183_699 phases=3 Linecode=2c_.0225 Length=3.3533 Units=m
New Line.LINE183_700 Bus1=183_686 Bus2=183_701 phases=3 Linecode=2c_.0225 Length=3.3946 Units=m
New Line.LINE183_712 Bus1=183_697 Bus2=183_713 phases=3 Linecode=25_SAC_PC Length=2.5647 Units=m
New Line.LINE183_714 Bus1=183_699 Bus2=183_715 phases=3 Linecode=2c_.0225 Length=7.3507 Units=m
New Line.LINE183_721 Bus1=183_706 Bus2=183_722 phases=3 Linecode=2c_.0225 Length=4.2768 Units=m
New Line.LINE183_729 Bus1=183_715 Bus2=183_730 phases=3 Linecode=2c_.0225 Length=1.8961 Units=m
New Line.LINE183_737 Bus1=183_723 Bus2=183_738 phases=3 Linecode=2c_.0225 Length=4.955 Units=m
New Line.LINE183_744 Bus1=183_730 Bus2=183_745 phases=3 Linecode=2c_.0225 Length=0.80138 Units=m
New Line.LINE183_758 Bus1=183_745 Bus2=183_759 phases=3 Linecode=2c_.0225 Length=0.398 Units=m
New Line.LINE183_772 Bus1=183_759 Bus2=183_773 phases=3 Linecode=2c_.0225 Length=0.29711 Units=m
New Line.LINE183_784 Bus1=183_770 Bus2=183_785 phases=3 Linecode=25_SAC_PC Length=2.1615 Units=m
New Line.LINE183_787 Bus1=183_773 Bus2=183_788 phases=3 Linecode=2c_.0225 Length=0.38794 Units=m
New Line.LINE183_801 Bus1=183_788 Bus2=183_802 phases=3 Linecode=2c_.0225 Length=0.34125 Units=m
New Line.LINE183_807 Bus1=183_793 Bus2=183_808 phases=3 Linecode=2c_.0225 Length=1.7959 Units=m
New Line.LINE183_816 Bus1=183_802 Bus2=183_817 phases=3 Linecode=2c_.0225 Length=0.8989 Units=m
New Line.LINE183_824 Bus1=183_811 Bus2=183_825 phases=3 Linecode=4c_.1 Length=4.9492 Units=m
New Line.LINE183_830 Bus1=183_817 Bus2=183_831 phases=3 Linecode=2c_.0225 Length=3.4777 Units=m
New Line.LINE183_838 Bus1=183_825 Bus2=183_839 phases=3 Linecode=4c_.1 Length=2.271 Units=m
New Line.LINE183_844 Bus1=183_831 Bus2=183_845 phases=3 Linecode=2c_.0225 Length=0.2097 Units=m
New Line.LINE183_848 Bus1=183_834 Bus2=183_849 phases=3 Linecode=4c_.1 Length=1.1232 Units=m
New Line.LINE183_852 Bus1=183_839 Bus2=183_853 phases=3 Linecode=4c_.1 Length=7.5075 Units=m
New Line.LINE183_858 Bus1=183_845 Bus2=183_859 phases=3 Linecode=2c_.0225 Length=0.525 Units=m
New Line.LINE183_862 Bus1=183_849 Bus2=183_863 phases=3 Linecode=4c_.1 Length=1.3182 Units=m
New Line.LINE183_866 Bus1=183_853 Bus2=183_867 phases=3 Linecode=4c_.1 Length=2.5099 Units=m
New Line.LINE183_872 Bus1=183_859 Bus2=183_873 phases=3 Linecode=2c_.0225 Length=0.49773 Units=m
New Line.LINE183_876 Bus1=183_863 Bus2=183_877 phases=3 Linecode=4c_.1 Length=2.6225 Units=m
New Line.LINE183_880 Bus1=183_867 Bus2=183_881 phases=3 Linecode=4c_.1 Length=2.3175 Units=m
New Line.LINE183_886 Bus1=183_873 Bus2=183_887 phases=3 Linecode=2c_.0225 Length=0.41764 Units=m
New Line.LINE183_889 Bus1=183_877 Bus2=183_890 phases=3 Linecode=4c_.1 Length=0.92322 Units=m
New Line.LINE183_893 Bus1=183_881 Bus2=183_894 phases=3 Linecode=2c_.0225 Length=5.9878 Units=m
New Line.LINE183_899 Bus1=183_887 Bus2=183_900 phases=3 Linecode=2c_.0225 Length=0.398 Units=m
New Line.LINE183_902 Bus1=183_890 Bus2=183_903 phases=3 Linecode=4c_.1 Length=0.5563 Units=m
New Line.LINE183_906 Bus1=183_894 Bus2=183_907 phases=3 Linecode=2c_.0225 Length=0.5192 Units=m
New Line.LINE183_912 Bus1=183_900 Bus2=183_913 phases=3 Linecode=2c_.0225 Length=1.4653 Units=m
New Line.LINE183_915 Bus1=183_903 Bus2=183_916 phases=3 Linecode=4c_.1 Length=0.65962 Units=m
New Line.LINE183_918 Bus1=183_907 Bus2=183_919 phases=3 Linecode=2c_.0225 Length=0.079195 Units=m
New Line.LINE183_924 Bus1=183_913 Bus2=183_925 phases=3 Linecode=2c_.0225 Length=1.9229 Units=m
New Line.LINE183_926 Bus1=183_916 Bus2=183_927 phases=3 Linecode=4c_.1 Length=0.59104 Units=m
New Line.LINE183_929 Bus1=183_919 Bus2=183_930 phases=3 Linecode=2c_.0225 Length=0.070435 Units=m
New Line.LINE183_936 Bus1=183_927 Bus2=183_937 phases=3 Linecode=4c_.1 Length=0.65962 Units=m
New Line.LINE183_939 Bus1=183_930 Bus2=183_940 phases=3 Linecode=2c_.0225 Length=0.10515 Units=m
New Line.LINE183_945 Bus1=183_937 Bus2=183_946 phases=3 Linecode=4c_.1 Length=0.97744 Units=m
New Line.LINE183_948 Bus1=183_940 Bus2=183_949 phases=3 Linecode=2c_.0225 Length=0.097801 Units=m
New Line.LINE183_955 Bus1=183_946 Bus2=183_956 phases=3 Linecode=4c_.1 Length=0.19942 Units=m
New Line.LINE183_958 Bus1=183_949 Bus2=183_959 phases=3 Linecode=2c_.0225 Length=0.10668 Units=m
New Line.LINE183_964 Bus1=183_956 Bus2=183_965 phases=3 Linecode=4c_.1 Length=0.031321 Units=m
New Line.LINE183_967 Bus1=183_959 Bus2=183_968 phases=3 Linecode=2c_.0225 Length=0.11165 Units=m
New Line.LINE183_972 Bus1=183_965 Bus2=183_973 phases=3 Linecode=4c_.1 Length=0.07343 Units=m
New Line.LINE183_975 Bus1=183_968 Bus2=183_976 phases=3 Linecode=2c_.0225 Length=0.14442 Units=m
New Line.LINE183_980 Bus1=183_973 Bus2=183_981 phases=3 Linecode=4c_.1 Length=0.1591 Units=m
New Line.LINE183_983 Bus1=183_976 Bus2=183_984 phases=3 Linecode=2c_.0225 Length=0.20506 Units=m
New Line.LINE183_988 Bus1=183_981 Bus2=183_989 phases=3 Linecode=4c_.1 Length=0.32006 Units=m
New Line.LINE183_990 Bus1=183_982 Bus2=183_991 phases=3 Linecode=2c_.0225 Length=3.6553 Units=m
New Line.LINE183_992 Bus1=183_984 Bus2=183_993 phases=3 Linecode=2c_.0225 Length=0.11211 Units=m
New Line.LINE183_996 Bus1=183_989 Bus2=183_997 phases=3 Linecode=4c_.1 Length=0.36237 Units=m
New Line.LINE183_999 Bus1=183_993 Bus2=183_1000 phases=3 Linecode=2c_.0225 Length=0.12249 Units=m
New Line.LINE183_1003 Bus1=183_997 Bus2=183_1004 phases=3 Linecode=4c_.1 Length=0.37759 Units=m
New Line.LINE183_1006 Bus1=183_1000 Bus2=183_1007 phases=3 Linecode=2c_.0225 Length=0.10517 Units=m
New Line.LINE183_1009 Bus1=183_1004 Bus2=183_1010 phases=3 Linecode=4c_.1 Length=0.31911 Units=m
New Line.LINE183_1012 Bus1=183_1007 Bus2=183_1013 phases=3 Linecode=2c_.0225 Length=0.13703 Units=m
New Line.LINE183_1015 Bus1=183_1010 Bus2=183_1016 phases=3 Linecode=4c_.1 Length=0.4 Units=m
New Line.LINE183_1018 Bus1=183_1013 Bus2=183_1019 phases=3 Linecode=2c_.0225 Length=0.13919 Units=m
New Line.LINE183_1021 Bus1=183_1016 Bus2=183_1022 phases=3 Linecode=4c_.1 Length=0.33702 Units=m
New Line.LINE183_1024 Bus1=183_1019 Bus2=183_1025 phases=3 Linecode=2c_.0225 Length=0.13403 Units=m
New Line.LINE183_1027 Bus1=183_1022 Bus2=183_1028 phases=3 Linecode=4c_.1 Length=0.57089 Units=m
New Line.LINE183_1030 Bus1=183_1025 Bus2=183_1031 phases=3 Linecode=2c_.0225 Length=0.12813 Units=m
New Line.LINE183_1033 Bus1=183_1028 Bus2=183_1034 phases=3 Linecode=4c_.1 Length=1.6221 Units=m
New Line.LINE183_1036 Bus1=183_1031 Bus2=183_1037 phases=3 Linecode=2c_.0225 Length=0.088685 Units=m
New Line.LINE183_1039 Bus1=183_1034 Bus2=183_1040 phases=3 Linecode=4c_.1 Length=0.16851 Units=m
New Line.LINE183_1042 Bus1=183_1037 Bus2=183_1043 phases=3 Linecode=2c_.0225 Length=0.067897 Units=m
New Line.LINE183_1045 Bus1=183_1040 Bus2=183_1046 phases=3 Linecode=4c_.1 Length=0.077103 Units=m
New Line.LINE183_1048 Bus1=183_1043 Bus2=183_1049 phases=3 Linecode=2c_.0225 Length=0.084723 Units=m
New Line.LINE183_1051 Bus1=183_1046 Bus2=183_1052 phases=3 Linecode=4c_.1 Length=0.13008 Units=m
New Line.LINE183_1054 Bus1=183_1048 Bus2=183_1055 phases=3 Linecode=3c_.06_UA Length=2.9923 Units=m
New Line.LINE183_1055 Bus1=183_1049 Bus2=183_1056 phases=3 Linecode=2c_.0225 Length=0.10657 Units=m
New Line.LINE183_1058 Bus1=183_1052 Bus2=183_1059 phases=3 Linecode=4c_.1 Length=0.23888 Units=m
New Line.LINE183_1062 Bus1=183_1055 Bus2=183_1063 phases=3 Linecode=3c_.06_UA Length=6.0251 Units=m
New Line.LINE183_1063 Bus1=183_1056 Bus2=183_1064 phases=3 Linecode=2c_.0225 Length=0.094339 Units=m
New Line.LINE183_1066 Bus1=183_1059 Bus2=183_1067 phases=3 Linecode=4c_.075_UA Length=2.5403 Units=m
New Line.LINE183_1069 Bus1=183_1061 Bus2=183_1070 phases=3 Linecode=3c_.06_UA Length=3.656 Units=m
New Line.LINE183_1071 Bus1=183_1064 Bus2=183_1072 phases=3 Linecode=2c_.0225 Length=0.37823 Units=m
New Line.LINE183_1074 Bus1=183_1067 Bus2=183_1075 phases=3 Linecode=4c_.075_UA Length=0.51856 Units=m
New Line.LINE183_1078 Bus1=183_1072 Bus2=183_1079 phases=3 Linecode=2c_.0225 Length=0.16411 Units=m
New Line.LINE183_1081 Bus1=183_1075 Bus2=183_1082 phases=3 Linecode=4c_.075_UA Length=1.6102 Units=m
New Line.LINE183_1085 Bus1=183_1079 Bus2=183_1086 phases=3 Linecode=2c_.0225 Length=4.532 Units=m
New Line.LINE183_1088 Bus1=183_1082 Bus2=183_1089 phases=3 Linecode=4c_.075_UA Length=1.3341 Units=m
New Line.LINE183_1092 Bus1=183_1089 Bus2=183_1093 phases=3 Linecode=4c_.075_UA Length=1.1146 Units=m
New Line.LINE183_1096 Bus1=183_1093 Bus2=183_1097 phases=3 Linecode=4c_.075_UA Length=2.2089 Units=m
New Line.LINE183_1099 Bus1=183_1097 Bus2=183_1100 phases=3 Linecode=4c_.075_UA Length=3.1494 Units=m
New Line.LINE183_1102 Bus1=183_1100 Bus2=183_1103 phases=3 Linecode=4c_.075_UA Length=0.58528 Units=m
New Line.LINE183_1105 Bus1=183_1103 Bus2=183_1106 phases=3 Linecode=4c_.06_UA Length=1.272 Units=m
New Line.LINE183_1108 Bus1=183_1106 Bus2=183_1109 phases=3 Linecode=4c_.06_UA Length=0.55965 Units=m
New Line.LINE183_1110 Bus1=183_1107 Bus2=183_1111 phases=3 Linecode=2c_.0225 Length=2.245 Units=m
New Line.LINE183_1112 Bus1=183_1109 Bus2=183_1113 phases=3 Linecode=4c_.06_UA Length=3.2924 Units=m
New Line.LINE183_1116 Bus1=183_1113 Bus2=183_1117 phases=3 Linecode=4c_.06_UA Length=4.1009 Units=m
New Line.LINE183_1120 Bus1=183_1117 Bus2=183_1121 phases=3 Linecode=4c_.06_UA Length=2.5951 Units=m
New Line.LINE183_1124 Bus1=183_1121 Bus2=183_1125 phases=3 Linecode=4c_.06_UA Length=1.8121 Units=m
New Line.LINE183_1128 Bus1=183_1125 Bus2=183_1129 phases=3 Linecode=4c_.06_UA Length=4.9397 Units=m
New Line.LINE183_1133 Bus1=183_1129 Bus2=183_1134 phases=3 Linecode=4c_.075_UA Length=1.7026 Units=m
New Line.LINE183_1138 Bus1=183_1134 Bus2=183_1139 phases=3 Linecode=4c_.075_UA Length=1.4367 Units=m
New Line.LINE183_1142 Bus1=183_1139 Bus2=183_1143 phases=3 Linecode=4c_.075_UA Length=1.3873 Units=m
New Line.LINE183_1146 Bus1=183_1143 Bus2=183_1147 phases=3 Linecode=4c_.075_UA Length=1.6746 Units=m
New Line.LINE183_1150 Bus1=183_1147 Bus2=183_1151 phases=3 Linecode=4c_.075_UA Length=1.09 Units=m
New Line.LINE183_1154 Bus1=183_1151 Bus2=183_1155 phases=3 Linecode=4c_.075_UA Length=1.4009 Units=m
New Line.LINE183_1158 Bus1=183_1155 Bus2=183_1159 phases=3 Linecode=4c_.075_UA Length=1.6034 Units=m
New Line.LINE183_1162 Bus1=183_1159 Bus2=183_1163 phases=3 Linecode=4c_.075_UA Length=2.0487 Units=m
New Line.LINE183_1166 Bus1=183_1163 Bus2=183_1167 phases=3 Linecode=4c_.075_UA Length=1.9001 Units=m
New Line.LINE183_1170 Bus1=183_1167 Bus2=183_1171 phases=3 Linecode=4c_.075_UA Length=1.9651 Units=m
New Line.LINE183_1174 Bus1=183_1171 Bus2=183_1175 phases=3 Linecode=4c_.075_UA Length=1.5126 Units=m
New Line.LINE183_1179 Bus1=183_1175 Bus2=183_1180 phases=3 Linecode=4c_.075_UA Length=1.345 Units=m
New Line.LINE183_1183 Bus1=183_1180 Bus2=183_1184 phases=3 Linecode=4c_.075_UA Length=2.5732 Units=m
New Line.LINE183_1187 Bus1=183_1183 Bus2=183_1188 phases=3 Linecode=3c_.06_UA Length=3.4053 Units=m
New Line.LINE183_1188 Bus1=183_1184 Bus2=183_1189 phases=3 Linecode=4c_.075_UA Length=1.9759 Units=m
New Line.LINE183_1191 Bus1=183_1186 Bus2=183_1192 phases=3 Linecode=3c_.06_UA Length=2.3195 Units=m
New Line.LINE183_1193 Bus1=183_1189 Bus2=183_1194 phases=3 Linecode=4c_.075_UA Length=1.7596 Units=m
New Line.LINE183_1197 Bus1=183_1194 Bus2=183_1198 phases=3 Linecode=4c_.075_UA Length=1.2946 Units=m
New Line.LINE183_1202 Bus1=183_1198 Bus2=183_1203 phases=3 Linecode=4c_.075_UA Length=0.68916 Units=m
New Line.LINE183_1207 Bus1=183_1203 Bus2=183_1208 phases=3 Linecode=4c_.075_UA Length=0.50744 Units=m
New Line.LINE183_1212 Bus1=183_1208 Bus2=183_1213 phases=3 Linecode=4c_.075_UA Length=0.96001 Units=m
New Line.LINE183_1216 Bus1=183_1213 Bus2=183_1217 phases=3 Linecode=4c_.075_UA Length=0.78662 Units=m
New Line.LINE183_1220 Bus1=183_1217 Bus2=183_1221 phases=3 Linecode=4c_.075_UA Length=0.60803 Units=m
New Line.LINE183_1224 Bus1=183_1221 Bus2=183_1225 phases=3 Linecode=4c_.075_UA Length=0.91155 Units=m
New Line.LINE183_1228 Bus1=183_1225 Bus2=183_1229 phases=3 Linecode=4c_.075_UA Length=0.22424 Units=m
New Line.LINE183_1232 Bus1=183_1229 Bus2=183_1233 phases=3 Linecode=4c_.075_UA Length=0.52387 Units=m
New Line.LINE183_1236 Bus1=183_1233 Bus2=183_1237 phases=3 Linecode=2c_.0225 Length=0.19361 Units=m
New Line.LINE183_1241 Bus1=183_1237 Bus2=183_1242 phases=3 Linecode=2c_.0225 Length=0.072835 Units=m
New Line.LINE183_1427 Bus1=183_1424 Bus2=183_1428 phases=3 Linecode=2c_.0225 Length=1.0474 Units=m
New Line.LINE183_1455 Bus1=183_1453 Bus2=183_1456 phases=3 Linecode=2c_.0225 Length=1.1808 Units=m
New Line.LINE183_Cmpd_0 Bus1=183_1242 Bus2=183_1453 phases=3 Linecode=2c_.0225 Length=21.527798 Units=m
New Line.LINE183_Cmpd_1 Bus1=183_1 Bus2=183_86 phases=3 Linecode=4c_.1 Length=113.548311 Units=m
New Line.LINE183_Cmpd_2 Bus1=183_1453 Bus2=183_1490 phases=3 Linecode=2c_.0225 Length=9.797141 Units=m
New Line.LINE183_Cmpd_3 Bus1=183_120 Bus2=183_261 phases=3 Linecode=2c_.0225 Length=26.621583 Units=m
New Line.LINE183_Cmpd_4 Bus1=183_366 Bus2=183_770 phases=3 Linecode=25_SAC_PC Length=7.552495 Units=m
New Line.LINE183_Cmpd_5 Bus1=183_410 Bus2=183_882 phases=3 Linecode=2c_.0225 Length=13.347464 Units=m
New Line.LINE183_Cmpd_6 Bus1=183_1186 Bus2=183_1362 phases=3 Linecode=2c_.0225 Length=13.128069 Units=m
New Line.LINE183_Cmpd_7 Bus1=183_811 Bus2=183_1048 phases=3 Linecode=3c_.06_UA Length=11.761448 Units=m
New Line.LINE183_Cmpd_8 Bus1=183_618 Bus2=183_693 phases=3 Linecode=4c_.1 Length=12.122 Units=m
New Line.LINE183_Cmpd_9 Bus1=183_1242 Bus2=183_1424 phases=3 Linecode=2c_.0225 Length=19.38313 Units=m
New Line.LINE183_Cmpd_10 Bus1=183_422 Bus2=183_793 phases=3 Linecode=2c_.0225 Length=21.29829 Units=m
New Line.LINE183_Cmpd_11 Bus1=183_717 Bus2=183_982 phases=3 Linecode=2c_.0225 Length=15.78933 Units=m
New Line.LINE183_Cmpd_12 Bus1=183_317 Bus2=183_595 phases=3 Linecode=2c_.0225 Length=12.161499 Units=m
New Line.LINE183_Cmpd_13 Bus1=183_296 Bus2=183_317 phases=3 Linecode=2c_.0225 Length=1.95213 Units=m
New Line.LINE183_Cmpd_14 Bus1=183_697 Bus2=183_933 phases=3 Linecode=25_SAC_PC Length=4.295175 Units=m
New Line.LINE183_Cmpd_15 Bus1=183_834 Bus2=183_1107 phases=3 Linecode=2c_.0225 Length=16.32894 Units=m
New Line.LINE183_Cmpd_16 Bus1=183_618 Bus2=183_706 phases=3 Linecode=2c_.0225 Length=8.33478 Units=m
New Line.LINE183_Cmpd_17 Bus1=183_438 Bus2=183_598 phases=3 Linecode=2c_.0225 Length=8.46843 Units=m
New Line.LINE183_Cmpd_18 Bus1=183_1183 Bus2=183_1350 phases=3 Linecode=2c_.0225 Length=13.786575 Units=m
New Line.LINE183_Cmpd_19 Bus1=183_411 Bus2=183_950 phases=3 Linecode=2c_.0225 Length=14.481496 Units=m
New Line.LINE183_Cmpd_20 Bus1=183_501 Bus2=183_599 phases=3 Linecode=3c_.06_UA Length=8.18236 Units=m
New Line.LINE183_Cmpd_21 Bus1=183_259 Bus2=183_717 phases=3 Linecode=4c_.1 Length=28.15776 Units=m
New Line.LINE183_Cmpd_22 Bus1=183_717 Bus2=183_834 phases=3 Linecode=4c_.1 Length=5.48202 Units=m
New Line.LINE183_Cmpd_23 Bus1=183_104 Bus2=183_225 phases=3 Linecode=25_SAC_PC Length=19.26622 Units=m
New Line.LINE183_Cmpd_24 Bus1=183_219 Bus2=183_259 phases=3 Linecode=4c_.2 Length=9.110356 Units=m
New Line.LINE183_Cmpd_25 Bus1=183_86 Bus2=183_104 phases=3 Linecode=4c_.2 Length=11.12794 Units=m
New Line.LINE183_Cmpd_26 Bus1=183_1107 Bus2=183_1209 phases=3 Linecode=2c_.0225 Length=10.409886 Units=m
New Line.LINE183_Cmpd_27 Bus1=183_1129 Bus2=183_1174 phases=3 Linecode=2c_.0225 Length=11.893524 Units=m
New Line.LINE183_Cmpd_28 Bus1=183_315 Bus2=183_686 phases=3 Linecode=25_SAC_PC Length=10.241992 Units=m
New Line.LINE183_Cmpd_29 Bus1=183_982 Bus2=183_1083 phases=3 Linecode=2c_.0225 Length=6.001917 Units=m
New Line.LINE183_Cmpd_30 Bus1=183_353 Bus2=183_422 phases=3 Linecode=4c_.1 Length=30.8032 Units=m
New Line.LINE183_Cmpd_31 Bus1=183_501 Bus2=183_569 phases=3 Linecode=4c_.1 Length=14.201108 Units=m
New Line.LINE183_Cmpd_32 Bus1=183_1055 Bus2=183_1078 phases=3 Linecode=3c_.06_UA Length=12.7756 Units=m
New Line.LINE183_Cmpd_33 Bus1=183_264 Bus2=183_294 phases=3 Linecode=4c_.06_UA Length=31.79754 Units=m
New Line.LINE183_Cmpd_34 Bus1=183_315 Bus2=183_543 phases=3 Linecode=2c_.0225 Length=8.1178 Units=m
New Line.LINE183_Cmpd_35 Bus1=183_366 Bus2=183_697 phases=3 Linecode=25_SAC_PC Length=8.733475 Units=m
New Line.LINE183_Cmpd_36 Bus1=183_793 Bus2=183_905 phases=3 Linecode=2c_.0225 Length=12.49778 Units=m
New Line.LINE183_Cmpd_37 Bus1=183_86 Bus2=183_120 phases=3 Linecode=4c_.1 Length=15.33152 Units=m
New Line.LINE183_Cmpd_38 Bus1=183_259 Bus2=183_353 phases=3 Linecode=4c_.1 Length=20.14442 Units=m
New Line.LINE183_Cmpd_39 Bus1=183_104 Bus2=183_219 phases=3 Linecode=4c_.2 Length=48.972677 Units=m
New Line.LINE183_Cmpd_40 Bus1=183_543 Bus2=183_642 phases=3 Linecode=2c_.0225 Length=6.86146 Units=m
New Line.LINE183_Cmpd_41 Bus1=183_693 Bus2=183_723 phases=3 Linecode=2c_.0225 Length=7.9033 Units=m
New Line.LINE183_Cmpd_42 Bus1=183_770 Bus2=183_985 phases=3 Linecode=25_SAC_PC Length=5.635574 Units=m
New Line.LINE183_Cmpd_43 Bus1=183_264 Bus2=183_296 phases=3 Linecode=2c_.0225 Length=11.8136 Units=m
New Line.LINE183_Cmpd_44 Bus1=183_693 Bus2=183_811 phases=3 Linecode=4c_.1 Length=29.2285 Units=m
New Line.LINE183_Cmpd_45 Bus1=183_1424 Bus2=183_1452 phases=3 Linecode=2c_.0225 Length=5.851593 Units=m
New Line.LINE183_Cmpd_46 Bus1=183_353 Bus2=183_398 phases=3 Linecode=2c_.0225 Length=11.95248 Units=m
New Line.LINE183_Cmpd_47 Bus1=183_569 Bus2=183_618 phases=3 Linecode=4c_.1 Length=12.5095 Units=m
New Line.LINE183_Cmpd_48 Bus1=183_686 Bus2=183_914 phases=3 Linecode=25_SAC_PC Length=6.020619 Units=m
New Line.LINE183_Cmpd_49 Bus1=183_913 Bus2=183_1001 phases=3 Linecode=2c_.0225 Length=6.49259 Units=m
New Line.LINE183_Cmpd_50 Bus1=183_344 Bus2=183_366 phases=3 Linecode=25_SAC_PC Length=13.0678 Units=m
New Line.LINE183_Cmpd_51 Bus1=183_1048 Bus2=183_1061 phases=3 Linecode=3c_.06_UA Length=3.0759 Units=m
New Line.LINE183_Cmpd_52 Bus1=183_294 Bus2=183_344 phases=3 Linecode=4c_.06_UA Length=24.658871 Units=m
New Line.LINE183_Cmpd_53 Bus1=183_294 Bus2=183_315 phases=3 Linecode=25_SAC_PC Length=11.4511 Units=m
New Line.LINE183_Cmpd_54 Bus1=183_438 Bus2=183_501 phases=3 Linecode=4c_.1 Length=25.7398 Units=m
New Line.LINE183_Cmpd_55 Bus1=183_598 Bus2=183_719 phases=3 Linecode=2c_.0225 Length=8.447328 Units=m
New Line.LINE183_Cmpd_56 Bus1=183_296 Bus2=183_329 phases=3 Linecode=3c_.06_UA Length=9.4382 Units=m
New Line.LINE183_Cmpd_57 Bus1=183_706 Bus2=183_751 phases=3 Linecode=2c_.0225 Length=7.37343 Units=m
New Line.LINE183_Cmpd_58 Bus1=183_1061 Bus2=183_1084 phases=3 Linecode=3c_.06_UA Length=10.4876 Units=m
New Line.LINE183_Cmpd_59 Bus1=183_599 Bus2=183_648 phases=3 Linecode=3c_.06_UA Length=6.7466 Units=m
New Line.LINE183_Cmpd_60 Bus1=183_615 Bus2=183_690 phases=3 Linecode=3c_.06_UA Length=11.8103 Units=m
New Line.LINE183_Cmpd_61 Bus1=183_329 Bus2=183_361 phases=3 Linecode=3c_.06_UA Length=9.2041 Units=m
New Line.LINE183_Cmpd_62 Bus1=183_569 Bus2=183_601 phases=3 Linecode=2c_.0225 Length=12.1325 Units=m
New Line.LINE183_Cmpd_63 Bus1=183_1174 Bus2=183_1186 phases=3 Linecode=2c_.0225 Length=3.12574 Units=m
New Line.LINE183_Cmpd_64 Bus1=183_723 Bus2=183_810 phases=3 Linecode=2c_.0225 Length=8.8391 Units=m
New Line.LINE183_Cmpd_65 Bus1=183_1079 Bus2=183_1094 phases=3 Linecode=2c_.0225 Length=8.58321 Units=m
New Line.LINE183_Cmpd_66 Bus1=183_1174 Bus2=183_1183 phases=3 Linecode=2c_.0225 Length=2.88937 Units=m
