Test_Network/condensed/network_18/Feeder_4/LinesUnq_pruned.txt
New Line.LINE184_82 Bus1=184_80 Bus2=184_83 phases=3 Linecode=2c_.0225 Length=1.6337 Units=m
New Line.LINE184_84 Bus1=184_81 Bus2=184_85 phases=3 Linecode=4c_.2 Length=0.65744 Units=m
New Line.LINE184_178 Bus1=184_174 Bus2=184_179 phases=3 Linecode=2c_.0225 Length=2.3584 Units=m
New Line.LINE184_188 Bus1=184_186 Bus2=184_189 phases=3 Linecode=4c_.06 Length=0.1183 Units=m
New Line.LINE184_192 Bus1=184_189 Bus2=184_193 phases=3 Linecode=4c_.06 Length=0.68422 Units=m
New Line.LINE184_197 Bus1=184_193 Bus2=184_198 phases=3 Linecode=4c_.06 Length=0.25489 Units=m
New Line.LINE184_202 Bus1=184_198 Bus2=184_203 phases=3 Linecode=4c_.06 Length=0.34297 Units=m
New Line.LINE184_207 Bus1=184_203 Bus2=184_208 phases=3 Linecode=4c_.06 Length=0.41378 Units=m
New Line.LINE184_212 Bus1=184_208 Bus2=184_213 phases=3 Linecode=4c_.06 Length=0.58767 Units=m
New Line.LINE184_216 Bus1=184_213 Bus2=184_217 phases=3 Linecode=4c_.06 Length=0.57892 Units=m
New Line.LINE184_219 Bus1=184_217 Bus2=184_220 phases=3 Linecode=4c_.06 Length=0.91609 Units=m
New Line.LINE184_222 Bus1=184_220 Bus2=184_223 phases=3 Linecode=4c_.06 Length=0.22917 Units=m
New Line.LINE184_225 Bus1=184_223 Bus2=184_226 phases=3 Linecode=4c_.06 Length=0.24681 Units=m
New Line.LINE184_228 Bus1=184_226 Bus2=184_229 phases=3 Linecode=4c_.06 Length=0.23084 Units=m
New Line.LINE184_232 Bus1=184_229 Bus2=184_233 phases=3 Linecode=4c_.06 Length=0.18166 Units=m
New Line.LINE184_236 Bus1=184_233 Bus2=184_237 phases=3 Linecode=4c_.06 Length=0.20063 Units=m
New Line.LINE184_240 Bus1=184_237 Bus2=184_241 phases=3 Linecode=25_SAC_PC Length=9.9648 Units=m
New Line.LINE184_308 Bus1=184_303 Bus2=184_309 phases=3 Linecode=25_SAC_PC Length=1.5065 Units=m
New Line.LINE184_424 Bus1=184_420 Bus2=184_425 phases=3 Linecode=2c_.0225 Length=0.54633 Units=m
New Line.LINE184_466 Bus1=184_462 Bus2=184_467 phases=3 Linecode=25_SAC_PC Length=0.4328 Units=m
New Line.LINE184_487 Bus1=184_483 Bus2=184_488 phases=3 Linecode=2c_.0225 Length=2.2152 Units=m
New Line.LINE184_488 Bus1=184_483 Bus2=184_489 phases=3 Linecode=2c_.0225 Length=2.5482 Units=m
New Line.LINE184_494 Bus1=184_488 Bus2=184_495 phases=3 Linecode=3c_.06_UA Length=2.6885 Units=m
New Line.LINE184_496 Bus1=184_489 Bus2=184_497 phases=3 Linecode=3c_.06_UA Length=2.7606 Units=m
New Line.LINE184_632 Bus1=184_631 Bus2=184_633 phases=3 Linecode=4c_.2 Length=0.63909 Units=m
New Line.LINE184_636 Bus1=184_633 Bus2=184_637 phases=3 Linecode=2c_.0225 Length=0.3673 Units=m
New Line.LINE184_640 Bus1=184_637 Bus2=184_641 phases=3 Linecode=2c_.0225 Length=0.22674 Units=m
New Line.LINE184_644 Bus1=184_641 Bus2=184_645 phases=3 Linecode=2c_.0225 Length=1.4981 Units=m
New Line.LINE184_648 Bus1=184_645 Bus2=184_649 phases=3 Linecode=2c_.0225 Length=9.8302 Units=m
New Line.LINE184_652 Bus1=184_649 Bus2=184_653 phases=3 Linecode=2c_.0225 Length=0.37039 Units=m
New Line.LINE184_656 Bus1=184_653 Bus2=184_657 phases=3 Linecode=2c_.0225 Length=0.25803 Units=m
New Line.LINE184_660 Bus1=184_657 Bus2=184_661 phases=3 Linecode=2c_.0225 Length=0.33469 Units=m
New Line.LINE184_664 Bus1=184_661 Bus2=184_665 phases=3 Linecode=2c_.0225 Length=0.33549 Units=m
New Line.LINE184_667 Bus1=184_665 Bus2=184_668 phases=3 Linecode=2c_.0225 Length=0.49081 Units=m
New Line.LINE184_670 Bus1=184_668 Bus2=184_671 phases=3 Linecode=2c_.0225 Length=1.1053 Units=m
New Line.LINE184_673 Bus1=184_671 Bus2=184_674 phases=3 Linecode=2c_.0225 Length=0.053038 Units=m
New Line.LINE184_676 Bus1=184_674 Bus2=184_677 phases=3 Linecode=2c_.0225 Length=0.24865 Units=m
New Line.LINE184_679 Bus1=184_677 Bus2=184_680 phases=3 Linecode=2c_.0225 Length=0.23744 Units=m
New Line.LINE184_682 Bus1=184_680 Bus2=184_683 phases=3 Linecode=2c_.0225 Length=0.24026 Units=m
New Line.LINE184_685 Bus1=184_683 Bus2=184_686 phases=3 Linecode=2c_.0225 Length=0.31976 Units=m
New Line.LINE184_688 Bus1=184_686 Bus2=184_689 phases=3 Linecode=2c_.0225 Length=0.49072 Units=m
New Line.LINE184_691 Bus1=184_689 Bus2=184_692 phases=3 Linecode=2c_.0225 Length=1.9504 Units=m
New Line.LINE184_694 Bus1=184_692 Bus2=184_695 phases=3 Linecode=2c_.0225 Length=0.207 Units=m
New Line.LINE184_697 Bus1=184_695 Bus2=184_698 phases=3 Linecode=2c_.0225 Length=0.11621 Units=m
New Line.LINE184_700 Bus1=184_698 Bus2=184_701 phases=3 Linecode=2c_.0225 Length=0.1122 Units=m
New Line.LINE184_703 Bus1=184_701 Bus2=184_704 phases=3 Linecode=2c_.0225 Length=0.34892 Units=m
New Line.LINE184_707 Bus1=184_704 Bus2=184_708 phases=3 Linecode=2c_.0225 Length=0.15173 Units=m
New Line.LINE184_711 Bus1=184_708 Bus2=184_712 phases=3 Linecode=2c_.0225 Length=0.13354 Units=m
New Line.LINE184_715 Bus1=184_712 Bus2=184_716 phases=3 Linecode=2c_.0225 Length=0.79692 Units=m
New Line.LINE184_720 Bus1=184_716 Bus2=184_721 phases=3 Linecode=2c_.0225 Length=0.71051 Units=m
New Line.LINE184_730 Bus1=184_726 Bus2=184_731 phases=3 Linecode=2c_.0225 Length=2.1188 Units=m
New Line.LINE184_731 Bus1=184_727 Bus2=184_732 phases=3 Linecode=4c_.007_UA Length=1.4433 Units=m
New Line.LINE184_736 Bus1=184_732 Bus2=184_737 phases=3 Linecode=4c_.075_UA Length=0.76497 Units=m
New Line.LINE184_741 Bus1=184_737 Bus2=184_742 phases=3 Linecode=4c_.075_UA Length=0.52069 Units=m
New Line.LINE184_746 Bus1=184_742 Bus2=184_747 phases=3 Linecode=4c_.075_UA Length=0.6447 Units=m
New Line.LINE184_748 Bus1=184_743 Bus2=184_749 phases=3 Linecode=2c_.0225 Length=4.8645 Units=m
New Line.LINE184_752 Bus1=184_747 Bus2=184_753 phases=3 Linecode=4c_.075_UA Length=0.92788 Units=m
New Line.LINE184_757 Bus1=184_753 Bus2=184_758 phases=3 Linecode=4c_.075_UA Length=1.2368 Units=m
New Line.LINE184_762 Bus1=184_758 Bus2=184_763 phases=3 Linecode=4c_.075_UA Length=0.78474 Units=m
New Line.LINE184_767 Bus1=184_763 Bus2=184_768 phases=3 Linecode=4c_.075_UA Length=1.9818 Units=m
New Line.LINE184_773 Bus1=184_768 Bus2=184_774 phases=3 Linecode=4c_.075_UA Length=2.8776 Units=m
New Line.LINE184_779 Bus1=184_774 Bus2=184_780 phases=3 Linecode=4c_.075_UA Length=3.9968 Units=m
New Line.LINE184_785 Bus1=184_780 Bus2=184_786 phases=3 Linecode=4c_.075_UA Length=3.6942 Units=m
New Line.LINE184_791 Bus1=184_786 Bus2=184_792 phases=3 Linecode=4c_.075_UA Length=2.6878 Units=m
New Line.LINE184_798 Bus1=184_792 Bus2=184_799 phases=3 Linecode=4c_.075_UA Length=2.8188 Units=m
New Line.LINE184_806 Bus1=184_799 Bus2=184_807 phases=3 Linecode=4c_.075_UA Length=1.7461 Units=m
New Line.LINE184_814 Bus1=184_807 Bus2=184_815 phases=3 Linecode=4c_.075_UA Length=7.1114 Units=m
New Line.LINE184_822 Bus1=184_815 Bus2=184_823 phases=3 Linecode=4c_.075_UA Length=0.44385 Units=m
New Line.LINE184_830 Bus1=184_823 Bus2=184_831 phases=3 Linecode=4c_.075_UA Length=0.3608 Units=m
New Line.LINE184_838 Bus1=184_831 Bus2=184_839 phases=3 Linecode=4c_.075_UA Length=0.19486 Units=m
New Line.LINE184_846 Bus1=184_839 Bus2=184_847 phases=3 Linecode=4c_.075_UA Length=0.25544 Units=m
New Line.LINE184_853 Bus1=184_847 Bus2=184_854 phases=3 Linecode=2c_.0225 Length=0.17674 Units=m
New Line.LINE184_860 Bus1=184_854 Bus2=184_861 phases=3 Linecode=2c_.0225 Length=0.23322 Units=m
New Line.LINE184_867 Bus1=184_861 Bus2=184_868 phases=3 Linecode=2c_.0225 Length=0.2441 Units=m
New Line.LINE184_874 Bus1=184_868 Bus2=184_875 phases=3 Linecode=2c_.0225 Length=0.23286 Units=m
New Line.LINE184_881 Bus1=184_875 Bus2=184_882 phases=3 Linecode=2c_.0225 Length=0.25372 Units=m
New Line.LINE184_888 Bus1=184_882 Bus2=184_889 phases=3 Linecode=2c_.0225 Length=0.27851 Units=m
New Line.LINE184_894 Bus1=184_889 Bus2=184_895 phases=3 Linecode=2c_.0225 Length=0.40845 Units=m
New Line.LINE184_900 Bus1=184_895 Bus2=184_901 phases=3 Linecode=2c_.0225 Length=3.6754 Units=m
New Line.LINE184_906 Bus1=184_901 Bus2=184_907 phases=3 Linecode=2c_.0225 Length=0.65882 Units=m
New Line.LINE184_911 Bus1=184_905 Bus2=184_912 phases=3 Linecode=2c_.0225 Length=3.3809 Units=m
New Line.LINE184_913 Bus1=184_907 Bus2=184_914 phases=3 Linecode=2c_.0225 Length=0.4761 Units=m
New Line.LINE184_919 Bus1=184_913 Bus2=184_920 phases=3 Linecode=4c_.2 Length=1.9856 Units=m
New Line.LINE184_920 Bus1=184_914 Bus2=184_921 phases=3 Linecode=2c_.0225 Length=2.1298 Units=m
New Line.LINE184_926 Bus1=184_920 Bus2=184_927 phases=3 Linecode=4c_.2 Length=2.1377 Units=m
New Line.LINE184_927 Bus1=184_921 Bus2=184_928 phases=3 Linecode=2c_.0225 Length=3.5481 Units=m
New Line.LINE184_933 Bus1=184_927 Bus2=184_934 phases=3 Linecode=4c_.2 Length=0.99134 Units=m
New Line.LINE184_935 Bus1=184_928 Bus2=184_936 phases=3 Linecode=2c_.0225 Length=0.78377 Units=m
New Line.LINE184_941 Bus1=184_933 Bus2=184_942 phases=3 Linecode=2c_.0225 Length=4.869 Units=m
New Line.LINE184_942 Bus1=184_934 Bus2=184_943 phases=3 Linecode=4c_.2 Length=2.8096 Units=m
New Line.LINE184_949 Bus1=184_943 Bus2=184_950 phases=3 Linecode=4c_.2 Length=1.3192 Units=m
New Line.LINE184_956 Bus1=184_950 Bus2=184_957 phases=3 Linecode=4c_.2 Length=1.2867 Units=m
New Line.LINE184_963 Bus1=184_957 Bus2=184_964 phases=3 Linecode=4c_.2 Length=1.9451 Units=m
New Line.LINE184_970 Bus1=184_964 Bus2=184_971 phases=3 Linecode=4c_.2 Length=2.333 Units=m
New Line.LINE184_977 Bus1=184_971 Bus2=184_978 phases=3 Linecode=4c_.2 Length=2.2855 Units=m
New Line.LINE184_984 Bus1=184_978 Bus2=184_985 phases=3 Linecode=4c_.2 Length=1.2152 Units=m
New Line.LINE184_990 Bus1=184_985 Bus2=184_991 phases=3 Linecode=4c_.2 Length=1.4681 Units=m
New Line.LINE184_996 Bus1=184_991 Bus2=184_997 phases=3 Linecode=2c_.0225 Length=0.36942 Units=m
New Line.LINE184_1002 Bus1=184_997 Bus2=184_1003 phases=3 Linecode=2c_.0225 Length=0.057689 Units=m
New Line.LINE184_1007 Bus1=184_1003 Bus2=184_1008 phases=3 Linecode=2c_.0225 Length=0.35224 Units=m
New Line.LINE184_1012 Bus1=184_1008 Bus2=184_1013 phases=3 Linecode=2c_.0225 Length=0.60245 Units=m
New Line.LINE184_1015 Bus1=184_1010 Bus2=184_1016 phases=3 Linecode=2c_.0225 Length=1.5091 Units=m
New Line.LINE184_1018 Bus1=184_1013 Bus2=184_1019 phases=3 Linecode=2c_.0225 Length=0.97537 Units=m
New Line.LINE184_1023 Bus1=184_1019 Bus2=184_1024 phases=3 Linecode=2c_.0225 Length=1.1469 Units=m
New Line.LINE184_1028 Bus1=184_1024 Bus2=184_1029 phases=3 Linecode=2c_.0225 Length=1.1741 Units=m
New Line.LINE184_1033 Bus1=184_1029 Bus2=184_1034 phases=3 Linecode=2c_.0225 Length=1.5777 Units=m
New Line.LINE184_1038 Bus1=184_1034 Bus2=184_1039 phases=3 Linecode=2c_.0225 Length=1.4627 Units=m
New Line.LINE184_1043 Bus1=184_1039 Bus2=184_1044 phases=3 Linecode=2c_.0225 Length=1.1469 Units=m
New Line.LINE184_1048 Bus1=184_1044 Bus2=184_1049 phases=3 Linecode=2c_.0225 Length=0.37377 Units=m
New Line.LINE184_1053 Bus1=184_1049 Bus2=184_1054 phases=3 Linecode=2c_.0225 Length=0.21764 Units=m
New Line.LINE184_1058 Bus1=184_1054 Bus2=184_1059 phases=3 Linecode=2c_.0225 Length=0.24627 Units=m
New Line.LINE184_1063 Bus1=184_1059 Bus2=184_1064 phases=3 Linecode=2c_.0225 Length=0.77302 Units=m
New Line.LINE184_1068 Bus1=184_1064 Bus2=184_1069 phases=3 Linecode=2c_.0225 Length=2.5977 Units=m
New Line.LINE184_1074 Bus1=184_1069 Bus2=184_1075 phases=3 Linecode=3c_.06_UA Length=5.9513 Units=m
New Line.LINE184_1090 Bus1=184_1086 Bus2=184_1091 phases=3 Linecode=3c_.06_UA Length=5.1457 Units=m
New Line.LINE184_Cmpd_0 Bus1=184_743 Bus2=184_994 phases=3 Linecode=2c_.0225 Length=15.716393 Units=m
New Line.LINE184_Cmpd_1 Bus1=184_1086 Bus2=184_1162 phases=3 Linecode=2c_.0225 Length=12.022873 Units=m
New Line.LINE184_Cmpd_2 Bus1=184_905 Bus2=184_1083 phases=3 Linecode=2c_.0225 Length=10.143813 Units=m
New Line.LINE184_Cmpd_3 Bus1=184_420 Bus2=184_591 phases=3 Linecode=2c_.0225 Length=12.659181 Units=m
New Line.LINE184_Cmpd_4 Bus1=184_631 Bus2=184_726 phases=3 Linecode=2c_.0225 Length=19.26048 Units=m
New Line.LINE184_Cmpd_5 Bus1=184_726 Bus2=184_894 phases=3 Linecode=2c_.0225 Length=11.764199 Units=m
New Line.LINE184_Cmpd_6 Bus1=184_703 Bus2=184_893 phases=3 Linecode=4c_.2 Length=35.68966 Units=m
New Line.LINE184_Cmpd_7 Bus1=184_716 Bus2=184_845 phases=3 Linecode=2c_.0225 Length=11.169188 Units=m
New Line.LINE184_Cmpd_8 Bus1=184_254 Bus2=184_420 phases=3 Linecode=2c_.0225 Length=24.918676 Units=m
New Line.LINE184_Cmpd_9 Bus1=184_473 Bus2=184_625 phases=3 Linecode=4c_.2 Length=29.83415 Units=m
New Line.LINE184_Cmpd_10 Bus1=184_625 Bus2=184_703 phases=3 Linecode=4c_.2 Length=12.533753 Units=m
New Line.LINE184_Cmpd_11 Bus1=184_488 Bus2=184_617 phases=3 Linecode=2c_.0225 Length=15.192066 Units=m
New Line.LINE184_Cmpd_12 Bus1=184_1 Bus2=184_31 phases=3 Linecode=4c_.2 Length=38.289262 Units=m
New Line.LINE184_Cmpd_13 Bus1=184_85 Bus2=184_186 phases=3 Linecode=4c_.2 Length=36.06476 Units=m
New Line.LINE184_Cmpd_14 Bus1=184_489 Bus2=184_624 phases=3 Linecode=2c_.0225 Length=12.503078 Units=m
New Line.LINE184_Cmpd_15 Bus1=184_1010 Bus2=184_1112 phases=3 Linecode=2c_.0225 Length=9.682554 Units=m
New Line.LINE184_Cmpd_16 Bus1=184_893 Bus2=184_905 phases=3 Linecode=2c_.0225 Length=7.72675 Units=m
New Line.LINE184_Cmpd_17 Bus1=184_763 Bus2=184_1010 phases=3 Linecode=2c_.0225 Length=19.85121 Units=m
New Line.LINE184_Cmpd_18 Bus1=184_81 Bus2=184_174 phases=3 Linecode=2c_.0225 Length=32.79054 Units=m
New Line.LINE184_Cmpd_19 Bus1=184_933 Bus2=184_1116 phases=3 Linecode=2c_.0225 Length=13.007368 Units=m
New Line.LINE184_Cmpd_20 Bus1=184_462 Bus2=184_547 phases=3 Linecode=25_SAC_PC Length=12.04998 Units=m
New Line.LINE184_Cmpd_21 Bus1=184_238 Bus2=184_462 phases=3 Linecode=25_SAC_PC Length=29.900066 Units=m
New Line.LINE184_Cmpd_22 Bus1=184_80 Bus2=184_118 phases=3 Linecode=2c_.0225 Length=8.34936 Units=m
New Line.LINE184_Cmpd_23 Bus1=184_703 Bus2=184_727 phases=3 Linecode=4c_.007_UA Length=3.7894 Units=m
New Line.LINE184_Cmpd_24 Bus1=184_1069 Bus2=184_1157 phases=3 Linecode=2c_.0225 Length=11.730995 Units=m
New Line.LINE184_Cmpd_25 Bus1=184_31 Bus2=184_80 phases=3 Linecode=2c_.0225 Length=18.81148 Units=m
New Line.LINE184_Cmpd_26 Bus1=184_254 Bus2=184_473 phases=3 Linecode=4c_.2 Length=33.35319 Units=m
New Line.LINE184_Cmpd_27 Bus1=184_31 Bus2=184_81 phases=3 Linecode=4c_.2 Length=50.26773 Units=m
New Line.LINE184_Cmpd_28 Bus1=184_186 Bus2=184_238 phases=3 Linecode=4c_.2 Length=29.06574 Units=m
New Line.LINE184_Cmpd_29 Bus1=184_893 Bus2=184_913 phases=3 Linecode=4c_.2 Length=10.2143 Units=m
New Line.LINE184_Cmpd_30 Bus1=184_85 Bus2=184_180 phases=3 Linecode=2c_.0225 Length=34.98571 Units=m
New Line.LINE184_Cmpd_31 Bus1=184_928 Bus2=184_979 phases=3 Linecode=2c_.0225 Length=7.97471 Units=m
New Line.LINE184_Cmpd_32 Bus1=184_174 Bus2=184_215 phases=3 Linecode=2c_.0225 Length=11.65914 Units=m
New Line.LINE184_Cmpd_33 Bus1=184_913 Bus2=184_933 phases=3 Linecode=2c_.0225 Length=8.87268 Units=m
New Line.LINE184_Cmpd_34 Bus1=184_1064 Bus2=184_1086 phases=3 Linecode=2c_.0225 Length=2.8674 Units=m
New Line.LINE184_Cmpd_35 Bus1=184_241 Bus2=184_303 phases=3 Linecode=25_SAC_PC Length=10.811753 Units=m
New Line.LINE184_Cmpd_36 Bus1=184_303 Bus2=184_353 phases=3 Linecode=25_SAC_PC Length=11.35271 Units=m
New Line.LINE184_Cmpd_37 Bus1=184_727 Bus2=184_743 phases=3 Linecode=2c_.0225 Length=14.84252 Units=m
New Line.LINE184_Cmpd_38 Bus1=184_625 Bus2=184_631 phases=3 Linecode=4c_.2 Length=1.2161 Units=m
New Line.LINE184_Cmpd_39 Bus1=184_238 Bus2=184_254 phases=3 Linecode=4c_.2 Length=1.31039 Units=m
New Line.LINE184_Cmpd_40 Bus1=184_241 Bus2=184_278 phases=3 Linecode=2c_.0225 Length=16.24539 Units=m
New Line.LINE184_Cmpd_41 Bus1=184_473 Bus2=184_483 phases=3 Linecode=2c_.0225 Length=12.3403 Units=m
